_benchmark/grid_models/cartella/Transformer.dss
New "Transformer.ug_1_tr" buses=[ug_20kv_bb, ug_2kv_bb, ] windings=2 conns=[delta, wye, ] kVAs=[2000, 2000, ] %imag=1.5 kVs=[20, 2, ] %Rs=[0.93, 0, ] XHL=6 enabled=true
New "Transformer.ug_2_tr" buses=[ug_20kv_bb, ug_2kv_bb, ] windings=2 conns=[delta, wye, ] kVAs=[2000, 2000, ] %imag=1.5 kVs=[20, 2, ] %Rs=[0.93, 0, ] XHL=6 enabled=true
New "Transformer.ug_serv_tr" buses=[ug_2kv_bb, ug_serv_bb, ] windings=2 conns=[delta, wye, ] kVAs=[400, 400, ] %imag=1.6 kVs=[2, 0.4, ] %Rs=[1, 0, ] XHL=6 enabled=true
New "Transformer.ug_pwm" buses=[ug_2kv_bb, ug_dc-bb, ] windings=2 conns=[delta, wye, ] %Rs=[0, 0, ] XHL=1E-009 %imag=0 kVAs=[800, 800, ] kVs=[2, 1.5, ] enabled=true
New "Transformer.ugs_pwm" buses=[ug_2kv_bb, ugs_dc-bb, ] windings=2 conns=[delta, wye, ] %Rs=[0, 0, ] XHL=1E-009 %imag=0 kVAs=[800, 800, ] kVs=[2, 1.5, ] enabled=true
New "Transformer.ugs_dc-dc-conv" buses=[ugs_dc-bb, ugs_pv_dc-bb, ] windings=2 conns=[delta, wye, ] %Rs=[0, 0, ] XHL=1E-009 %imag=0 kVAs=[50, 50, ] kVs=[1.5, 0.75, ] enabled=true
New "Transformer.rs_tr" buses=[rs_20kv_bb, rs_04kv_bb, ] windings=2 conns=[delta, wye, ] kVAs=[400, 400, ] %imag=1.6 kVs=[20, 0.4, ] %Rs=[1, 0, ] XHL=6 enabled=true
New "Transformer.ev-fast_pwm" buses=[rs_04kv_bb, ev-fast_dc-bb, ] windings=2 conns=[delta, wye, ] %Rs=[0, 0, ] XHL=1E-009 %imag=0 kVAs=[2000, 2000, ] kVs=[0.4, 0.6, ] enabled=true
New "Transformer.ev-fast_dc-dc-conv" buses=[ev-fast_dc-bb, ev-fast-load_dc-node, ] windings=2 conns=[delta, wye, ] %Rs=[0, 0, ] XHL=1E-009 %imag=0 kVAs=[300, 300, ] kVs=[0.6, 0.4, ] enabled=true
New "Transformer.res_tr" buses=[res-wpg_bb, res_bb, ] windings=2 conns=[delta, wye, ] kVAs=[630, 630, ] %imag=1.6 kVs=[20, 0.4, ] %Rs=[1, 0, ] XHL=6 enabled=true
New "Transformer.pros_bess_pwm" buses=[pros_bb, pros1_dc-bb, ] windings=2 conns=[delta, wye, ] %Rs=[0, 0, ] XHL=1E-009 %imag=0 kVAs=[400, 400, ] kVs=[0.4, 0.6, ] enabled=true
New "Transformer.pros_pv_pwm" buses=[pros_bb, pros2_dc-bb, ] windings=2 conns=[delta, wye, ] %Rs=[0, 0, ] XHL=1E-009 %imag=0 kVAs=[400, 400, ] kVs=[0.4, 0.6, ] enabled=true
New "Transformer.wpg_tr" buses=[res-wpg_bb, wpg_1_bb, ] windings=2 conns=[delta, wye, ] kVAs=[2000, 2000, ] %imag=1.5 kVs=[20, 2, ] %Rs=[0.93, 0, ] XHL=6 enabled=true
New "Transformer.wpg_pwm" buses=[wpg_1_bb, wpg_pv_dc-bb, ] windings=2 conns=[delta, wye, ] %Rs=[0, 0, ] XHL=1E-009 %imag=0 kVAs=[2000, 2000, ] kVs=[2, 0.6, ] enabled=true
